@<TRIPOS>MOLECULE
MOL
   50    50     1     0     0
SMALL
resp


@<TRIPOS>ATOM
      1 C1          -2.8960     0.2310    -0.1630 c3         1 MOL       0.053668
      2 H1          -3.5320    -0.2260    -0.9060 h1         1 MOL       0.108512
      3 C2          -1.5570     0.6110    -0.8180 c3         1 MOL       0.235852
      4 H2          -1.7700     1.3340    -1.5920 h1         1 MOL       0.025660
      5 H3          -0.9120     1.0800    -0.0870 h1         1 MOL       0.025660
      6 S1          -0.6810    -0.7670    -1.6260 ss         1 MOL      -0.402285
      7 C3           0.5320    -1.2930    -0.3720 c3         1 MOL       0.125593
      8 C4           1.9400    -0.7000    -0.5230 c3         1 MOL       0.038817
      9 H4           2.2370    -0.7500    -1.5670 h1         1 MOL       0.140059
     10 C5           0.8220    -2.7980    -0.4500 c3         1 MOL      -0.406059
     11 H5           0.1480    -3.3800     0.1650 hc         1 MOL       0.162907
     12 H6           0.7510    -3.1630    -1.4670 hc         1 MOL       0.162907
     13 O1           2.7230    -1.6040     0.2330 os         1 MOL      -0.490672
     14 C6           2.2820    -2.9060     0.0080 c3         1 MOL       0.613638
     15 H7           2.4040    -3.4400     0.9420 h2         1 MOL      -0.007232
     16 O2           3.0120    -3.5270    -0.9970 oh         1 MOL      -0.746869
     17 H8           3.9310    -3.5060    -0.7630 ho         1 MOL       0.453858
     18 C7           2.1450     0.7070     0.0080 c3         1 MOL      -0.115540
     19 H9           1.8420     0.7320     1.0520 hc         1 MOL       0.000556
     20 H10          1.4850     1.3770    -0.5370 hc         1 MOL       0.000556
     21 C8           3.5890     1.1980    -0.1250 c3         1 MOL       0.285139
     22 H11          4.2410     0.5140     0.4050 hc         1 MOL      -0.046457
     23 H12          3.8840     1.1620    -1.1730 hc         1 MOL      -0.046457
     24 C9           3.7700     2.6250     0.4000 c3         1 MOL      -0.144869
     25 H13          3.5070     2.6550     1.4570 hc         1 MOL       0.033597
     26 H14          3.0630     3.2780    -0.1080 hc         1 MOL       0.033597
     27 C10          5.1800     3.1970     0.2160 c3         1 MOL       0.069066
     28 H15          5.1640     4.2480     0.4970 hc         1 MOL      -0.013372
     29 H16          5.4430     3.1700    -0.8390 hc         1 MOL      -0.013372
     30 C11          6.2640     2.4880     1.0290 c3         1 MOL      -0.109503
     31 H17          6.0210     2.4900     2.0880 hc         1 MOL       0.027522
     32 H18          6.3930     1.4560     0.7210 hc         1 MOL       0.027522
     33 H19          7.2220     2.9850     0.9090 hc         1 MOL       0.027522
     34 C12         -2.7020    -0.6950     1.0350 c          1 MOL       0.589149
     35 N1          -2.9720    -1.9930     0.8440 ns         1 MOL      -0.421615
     36 H20         -3.1650    -2.3100    -0.0770 hn         1 MOL       0.277020
     37 C13         -2.7890    -2.9680     1.8990 c3         1 MOL      -0.285157
     38 H21         -3.3380    -2.6700     2.7810 h1         1 MOL       0.131449
     39 H22         -3.1640    -3.9220     1.5550 h1         1 MOL       0.131449
     40 H23         -1.7440    -3.0740     2.1680 h1         1 MOL       0.131449
     41 O3          -2.3340    -0.2480     2.0940 o          1 MOL      -0.569815
     42 N2          -3.5610     1.4130     0.3370 ns         1 MOL      -0.696777
     43 H24         -3.3870     1.6520     1.2880 hn         1 MOL       0.369004
     44 C14         -4.3200     2.2030    -0.4530 c          1 MOL       0.798215
     45 C15         -4.9460     3.4060     0.2170 c3         1 MOL      -0.514624
     46 H25         -6.0230     3.3260     0.1290 hc         1 MOL       0.144388
     47 H26         -4.6820     3.5040     1.2630 hc         1 MOL       0.144388
     48 H27         -4.6380     4.2970    -0.3150 hc         1 MOL       0.144388
     49 O4          -4.4990     1.9670    -1.6190 o          1 MOL      -0.615862
     50 H28          0.1480    -1.0410     0.6090 h1         1 MOL       0.133429
@<TRIPOS>BOND
     1     1     2 1   
     2     1     3 1   
     3     1    34 1   
     4     1    42 1   
     5     3     4 1   
     6     3     5 1   
     7     3     6 1   
     8     6     7 1   
     9     7     8 1   
    10     7    10 1   
    11     7    50 1   
    12     8     9 1   
    13     8    13 1   
    14     8    18 1   
    15    10    11 1   
    16    10    12 1   
    17    10    14 1   
    18    13    14 1   
    19    14    15 1   
    20    14    16 1   
    21    16    17 1   
    22    18    19 1   
    23    18    20 1   
    24    18    21 1   
    25    21    22 1   
    26    21    23 1   
    27    21    24 1   
    28    24    25 1   
    29    24    26 1   
    30    24    27 1   
    31    27    28 1   
    32    27    29 1   
    33    27    30 1   
    34    30    31 1   
    35    30    32 1   
    36    30    33 1   
    37    34    35 1   
    38    34    41 2   
    39    35    36 1   
    40    35    37 1   
    41    37    38 1   
    42    37    39 1   
    43    37    40 1   
    44    42    43 1   
    45    42    44 1   
    46    44    45 1   
    47    44    49 2   
    48    45    46 1   
    49    45    47 1   
    50    45    48 1   
@<TRIPOS>SUBSTRUCTURE
     1 MOL         1 TEMP              0 ****  ****    0 ROOT
